dI 1m
dV 1m
dT 10m
V1 1 0 1 0 0 0
L1 2 3 10u
C1 3 0 1u
R1 1 2 1K
.tran 20m

