**************************************
R1	1	0	3k
R2	3	2	1G
V1	2	1	5	0	0	0
dV 1m
dI 1m
dT 10u
.tran     15m

