dI 1m
dV 1m
dT 10m
I1 1 0 0.01 0 0 0
L1 1 0 10u
C1 1 0 1u
R1 1 0 1K
.tran 20m

