dI 100u
dV 100u
dT 10m
R1 1 0 10
R2 1 0 10
V1 1 0 10 0 0 0
.tran 10m

